
* Spice subcircuit definition for ADDFHX1

*.BIPOLAR
                                                                                                                                                       
.subckt ANTENNA / A VDD VSS
DD1 A VDD pdio area=6.84e-13 pj=3.34e-06 m=1
DD0 VSS A ndio area=4.32e-13 pj=2.64e-06 m=1
.ends ANTENNA

.subckt ADDFHX1 CO S / A B CI VDD VSS
mn0 n0 A VSS VSS nmos1v w=0.34u l=0.1u
mn1 n0 B COb VSS nmos1v w=0.34u l=0.1u
mn10 n6 B n7 VSS nmos1v w=0.34u l=0.1u
mn11 n7 CI Sb VSS nmos1v w=0.34u l=0.1u
mn12 CO COb VSS VSS nmos1v w=0.43u l=0.1u
mn13 S Sb VSS VSS nmos1v w=0.43u l=0.1u
mn2 n2 A VSS VSS nmos1v w=0.34u l=0.1u
mn3 n2 B VSS VSS nmos1v w=0.34u l=0.1u
mn4 n2 CI COb VSS nmos1v w=0.34u l=0.1u
mn5 n4 A VSS VSS nmos1v w=0.34u l=0.1u
mn6 n4 B VSS VSS nmos1v w=0.34u l=0.1u
mn7 n4 CI VSS VSS nmos1v w=0.34u l=0.1u
mn8 n4 COb Sb VSS nmos1v w=0.34u l=0.1u
mn9 n6 A VSS VSS nmos1v w=0.34u l=0.1u
mp0 n1 A VDD VDD pmos1v w=0.52u l=0.1u
mp1 n1 B COb VDD pmos1v w=0.52u l=0.1u
mp10 n8 B n9 VDD pmos1v w=0.52u l=0.1u
mp11 n9 CI Sb VDD pmos1v w=0.52u l=0.1u
mp12 CO COb VDD VDD pmos1v w=0.65u l=0.1u
mp13 S Sb VDD VDD pmos1v w=0.65u l=0.1u
mp2 n3 A VDD VDD pmos1v w=0.52u l=0.1u
mp3 n3 B VDD VDD pmos1v w=0.52u l=0.1u
mp4 n3 CI COb VDD pmos1v w=0.52u l=0.1u
mp5 n5 A VDD VDD pmos1v w=0.52u l=0.1u
mp6 n5 B VDD VDD pmos1v w=0.52u l=0.1u
mp7 n5 CI VDD VDD pmos1v w=0.52u l=0.1u
mp8 n5 COb Sb VDD pmos1v w=0.52u l=0.1u
mp9 n8 A VDD VDD pmos1v w=0.52u l=0.1u
.ends ADDFHX1

* Spice subcircuit definition for ADDFHX2




.subckt ADDFHX2 CO S / A B CI VDD VSS
mn0 n0 A VSS VSS nmos1v w=0.34u l=0.1u
mn1 n0 B COb VSS nmos1v w=0.34u l=0.1u
mn10 n6 B n7 VSS nmos1v w=0.34u l=0.1u
mn11 n7 CI Sb VSS nmos1v w=0.34u l=0.1u
mn12 CO COb VSS VSS nmos1v w=0.86u l=0.1u
mn13 S Sb VSS VSS nmos1v w=0.86u l=0.1u
mn2 n2 A VSS VSS nmos1v w=0.34u l=0.1u
mn3 n2 B VSS VSS nmos1v w=0.34u l=0.1u
mn4 n2 CI COb VSS nmos1v w=0.34u l=0.1u
mn5 n4 A VSS VSS nmos1v w=0.34u l=0.1u
mn6 n4 B VSS VSS nmos1v w=0.34u l=0.1u
mn7 n4 CI VSS VSS nmos1v w=0.34u l=0.1u
mn8 n4 COb Sb VSS nmos1v w=0.34u l=0.1u
mn9 n6 A VSS VSS nmos1v w=0.34u l=0.1u
mp0 n1 A VDD VDD pmos1v w=0.52u l=0.1u
mp1 n1 B COb VDD pmos1v w=0.52u l=0.1u
mp10 n8 B n9 VDD pmos1v w=0.52u l=0.1u
mp11 n9 CI Sb VDD pmos1v w=0.52u l=0.1u
mp12 CO COb VDD VDD pmos1v w=1.3u l=0.1u
mp13 S Sb VDD VDD pmos1v w=1.3u l=0.1u
mp2 n3 A VDD VDD pmos1v w=0.52u l=0.1u
mp3 n3 B VDD VDD pmos1v w=0.52u l=0.1u
mp4 n3 CI COb VDD pmos1v w=0.52u l=0.1u
mp5 n5 A VDD VDD pmos1v w=0.52u l=0.1u
mp6 n5 B VDD VDD pmos1v w=0.52u l=0.1u
mp7 n5 CI VDD VDD pmos1v w=0.52u l=0.1u
mp8 n5 COb Sb VDD pmos1v w=0.52u l=0.1u
mp9 n8 A VDD VDD pmos1v w=0.52u l=0.1u
.ends ADDFHX2

* Spice subcircuit definition for ADDFHX4




.subckt ADDFHX4 CO S / A B CI VDD VSS
mn0 n0 A VSS VSS nmos1v w=0.43u l=0.1u
mn1 n0 B COb VSS nmos1v w=0.43u l=0.1u
mn10 n6 B n7 VSS nmos1v w=0.43u l=0.1u
mn11 n7 CI Sb VSS nmos1v w=0.43u l=0.1u
mn12 CO COb VSS VSS nmos1v w=1.72u l=0.1u
mn13 S Sb VSS VSS nmos1v w=1.72u l=0.1u
mn2 n2 A VSS VSS nmos1v w=0.43u l=0.1u
mn3 n2 B VSS VSS nmos1v w=0.43u l=0.1u
mn4 n2 CI COb VSS nmos1v w=0.43u l=0.1u
mn5 n4 A VSS VSS nmos1v w=0.43u l=0.1u
mn6 n4 B VSS VSS nmos1v w=0.43u l=0.1u
mn7 n4 CI VSS VSS nmos1v w=0.43u l=0.1u
mn8 n4 COb Sb VSS nmos1v w=0.43u l=0.1u
mn9 n6 A VSS VSS nmos1v w=0.43u l=0.1u
mp0 n1 A VDD VDD pmos1v w=0.65u l=0.1u
mp1 n1 B COb VDD pmos1v w=0.65u l=0.1u
mp10 n8 B n9 VDD pmos1v w=0.65u l=0.1u
mp11 n9 CI Sb VDD pmos1v w=0.65u l=0.1u
mp12 CO COb VDD VDD pmos1v w=2.6u l=0.1u
mp13 S Sb VDD VDD pmos1v w=2.6u l=0.1u
mp2 n3 A VDD VDD pmos1v w=0.65u l=0.1u
mp3 n3 B VDD VDD pmos1v w=0.65u l=0.1u
mp4 n3 CI COb VDD pmos1v w=0.65u l=0.1u
mp5 n5 A VDD VDD pmos1v w=0.65u l=0.1u
mp6 n5 B VDD VDD pmos1v w=0.65u l=0.1u
mp7 n5 CI VDD VDD pmos1v w=0.65u l=0.1u
mp8 n5 COb Sb VDD pmos1v w=0.65u l=0.1u
mp9 n8 A VDD VDD pmos1v w=0.65u l=0.1u
.ends ADDFHX4

* Spice subcircuit definition for ADDFHXL




.subckt ADDFHXL CO S / A B CI VDD VSS
mn0 n0 A VSS VSS nmos1v w=0.34u l=0.1u
mn1 n0 B COb VSS nmos1v w=0.34u l=0.1u
mn10 n6 B n7 VSS nmos1v w=0.34u l=0.1u
mn11 n7 CI Sb VSS nmos1v w=0.34u l=0.1u
mn12 CO COb VSS VSS nmos1v w=0.34u l=0.1u
mn13 S Sb VSS VSS nmos1v w=0.34u l=0.1u
mn2 n2 A VSS VSS nmos1v w=0.34u l=0.1u
mn3 n2 B VSS VSS nmos1v w=0.34u l=0.1u
mn4 n2 CI COb VSS nmos1v w=0.34u l=0.1u
mn5 n4 A VSS VSS nmos1v w=0.34u l=0.1u
mn6 n4 B VSS VSS nmos1v w=0.34u l=0.1u
mn7 n4 CI VSS VSS nmos1v w=0.34u l=0.1u
mn8 n4 COb Sb VSS nmos1v w=0.34u l=0.1u
mn9 n6 A VSS VSS nmos1v w=0.34u l=0.1u
mp0 n1 A VDD VDD pmos1v w=0.52u l=0.1u
mp1 n1 B COb VDD pmos1v w=0.52u l=0.1u
mp10 n8 B n9 VDD pmos1v w=0.52u l=0.1u
mp11 n9 CI Sb VDD pmos1v w=0.52u l=0.1u
mp12 CO COb VDD VDD pmos1v w=0.52u l=0.1u
mp13 S Sb VDD VDD pmos1v w=0.52u l=0.1u
mp2 n3 A VDD VDD pmos1v w=0.52u l=0.1u
mp3 n3 B VDD VDD pmos1v w=0.52u l=0.1u
mp4 n3 CI COb VDD pmos1v w=0.52u l=0.1u
mp5 n5 A VDD VDD pmos1v w=0.52u l=0.1u
mp6 n5 B VDD VDD pmos1v w=0.52u l=0.1u
mp7 n5 CI VDD VDD pmos1v w=0.52u l=0.1u
mp8 n5 COb Sb VDD pmos1v w=0.52u l=0.1u
mp9 n8 A VDD VDD pmos1v w=0.52u l=0.1u
.ends ADDFHXL

* Spice subcircuit definition for ADDFX1




.subckt ADDFX1 CO S / A B CI VDD VSS
mn0 n0 A VSS VSS nmos1v w=0.24u l=0.1u
mn1 n0 B COb VSS nmos1v w=0.24u l=0.1u
mn10 n6 B n7 VSS nmos1v w=0.24u l=0.1u
mn11 n7 CI Sb VSS nmos1v w=0.24u l=0.1u
mn12 CO COb VSS VSS nmos1v w=0.43u l=0.1u
mn13 S Sb VSS VSS nmos1v w=0.43u l=0.1u
mn2 n2 A VSS VSS nmos1v w=0.24u l=0.1u
mn3 n2 B VSS VSS nmos1v w=0.24u l=0.1u
mn4 n2 CI COb VSS nmos1v w=0.24u l=0.1u
mn5 n4 A VSS VSS nmos1v w=0.24u l=0.1u
mn6 n4 B VSS VSS nmos1v w=0.24u l=0.1u
mn7 n4 CI VSS VSS nmos1v w=0.24u l=0.1u
mn8 n4 COb Sb VSS nmos1v w=0.24u l=0.1u
mn9 n6 A VSS VSS nmos1v w=0.24u l=0.1u
mp0 n1 A VDD VDD pmos1v w=0.36u l=0.1u
mp1 n1 B COb VDD pmos1v w=0.36u l=0.1u
mp10 n8 B n9 VDD pmos1v w=0.36u l=0.1u
mp11 n9 CI Sb VDD pmos1v w=0.36u l=0.1u
mp12 CO COb VDD VDD pmos1v w=0.65u l=0.1u
mp13 S Sb VDD VDD pmos1v w=0.65u l=0.1u
mp2 n3 A VDD VDD pmos1v w=0.36u l=0.1u
mp3 n3 B VDD VDD pmos1v w=0.36u l=0.1u
mp4 n3 CI COb VDD pmos1v w=0.36u l=0.1u
mp5 n5 A VDD VDD pmos1v w=0.36u l=0.1u
mp6 n5 B VDD VDD pmos1v w=0.36u l=0.1u
mp7 n5 CI VDD VDD pmos1v w=0.36u l=0.1u
mp8 n5 COb Sb VDD pmos1v w=0.36u l=0.1u
mp9 n8 A VDD VDD pmos1v w=0.36u l=0.1u
.ends ADDFX1

* Spice subcircuit definition for ADDFX2




.subckt ADDFX2 CO S / A B CI VDD VSS
mn0 n0 A VSS VSS nmos1v w=0.24u l=0.1u
mn1 n0 B COb VSS nmos1v w=0.24u l=0.1u
mn10 n6 B n7 VSS nmos1v w=0.24u l=0.1u
mn11 n7 CI Sb VSS nmos1v w=0.24u l=0.1u
mn12 CO COb VSS VSS nmos1v w=0.86u l=0.1u
mn13 S Sb VSS VSS nmos1v w=0.86u l=0.1u
mn2 n2 A VSS VSS nmos1v w=0.24u l=0.1u
mn3 n2 B VSS VSS nmos1v w=0.24u l=0.1u
mn4 n2 CI COb VSS nmos1v w=0.24u l=0.1u
mn5 n4 A VSS VSS nmos1v w=0.24u l=0.1u
mn6 n4 B VSS VSS nmos1v w=0.24u l=0.1u
mn7 n4 CI VSS VSS nmos1v w=0.24u l=0.1u
mn8 n4 COb Sb VSS nmos1v w=0.24u l=0.1u
mn9 n6 A VSS VSS nmos1v w=0.24u l=0.1u
mp0 n1 A VDD VDD pmos1v w=0.36u l=0.1u
mp1 n1 B COb VDD pmos1v w=0.36u l=0.1u
mp10 n8 B n9 VDD pmos1v w=0.36u l=0.1u
mp11 n9 CI Sb VDD pmos1v w=0.36u l=0.1u
mp12 CO COb VDD VDD pmos1v w=1.3u l=0.1u
mp13 S Sb VDD VDD pmos1v w=1.3u l=0.1u
mp2 n3 A VDD VDD pmos1v w=0.36u l=0.1u
mp3 n3 B VDD VDD pmos1v w=0.36u l=0.1u
mp4 n3 CI COb VDD pmos1v w=0.36u l=0.1u
mp5 n5 A VDD VDD pmos1v w=0.36u l=0.1u
mp6 n5 B VDD VDD pmos1v w=0.36u l=0.1u
mp7 n5 CI VDD VDD pmos1v w=0.36u l=0.1u
mp8 n5 COb Sb VDD pmos1v w=0.36u l=0.1u
mp9 n8 A VDD VDD pmos1v w=0.36u l=0.1u
.ends ADDFX2

* Spice subcircuit definition for ADDFX4




.subckt ADDFX4 CO S / A B CI VDD VSS
mn0 n0 A VSS VSS nmos1v w=0.43u l=0.1u
mn1 n0 B COb VSS nmos1v w=0.43u l=0.1u
mn10 n6 B n7 VSS nmos1v w=0.43u l=0.1u
mn11 n7 CI Sb VSS nmos1v w=0.43u l=0.1u
mn12 CO COb VSS VSS nmos1v w=1.72u l=0.1u
mn13 S Sb VSS VSS nmos1v w=1.72u l=0.1u
mn2 n2 A VSS VSS nmos1v w=0.43u l=0.1u
mn3 n2 B VSS VSS nmos1v w=0.43u l=0.1u
mn4 n2 CI COb VSS nmos1v w=0.43u l=0.1u
mn5 n4 A VSS VSS nmos1v w=0.43u l=0.1u
mn6 n4 B VSS VSS nmos1v w=0.43u l=0.1u
mn7 n4 CI VSS VSS nmos1v w=0.43u l=0.1u
mn8 n4 COb Sb VSS nmos1v w=0.43u l=0.1u
mn9 n6 A VSS VSS nmos1v w=0.43u l=0.1u
mp0 n1 A VDD VDD pmos1v w=0.65u l=0.1u
mp1 n1 B COb VDD pmos1v w=0.65u l=0.1u
mp10 n8 B n9 VDD pmos1v w=0.65u l=0.1u
mp11 n9 CI Sb VDD pmos1v w=0.65u l=0.1u
mp12 CO COb VDD VDD pmos1v w=2.6u l=0.1u
mp13 S Sb VDD VDD pmos1v w=2.6u l=0.1u
mp2 n3 A VDD VDD pmos1v w=0.65u l=0.1u
mp3 n3 B VDD VDD pmos1v w=0.65u l=0.1u
mp4 n3 CI COb VDD pmos1v w=0.65u l=0.1u
mp5 n5 A VDD VDD pmos1v w=0.65u l=0.1u
mp6 n5 B VDD VDD pmos1v w=0.65u l=0.1u
mp7 n5 CI VDD VDD pmos1v w=0.65u l=0.1u
mp8 n5 COb Sb VDD pmos1v w=0.65u l=0.1u
mp9 n8 A VDD VDD pmos1v w=0.65u l=0.1u
.ends ADDFX4

* Spice subcircuit definition for ADDFXL




.subckt ADDFXL CO S / A B CI VDD VSS
mn0 n0 A VSS VSS nmos1v w=0.24u l=0.1u
mn1 n0 B COb VSS nmos1v w=0.24u l=0.1u
mn10 n6 B n7 VSS nmos1v w=0.24u l=0.1u
mn11 n7 CI Sb VSS nmos1v w=0.24u l=0.1u
mn12 CO COb VSS VSS nmos1v w=0.24u l=0.1u
mn13 S Sb VSS VSS nmos1v w=0.24u l=0.1u
mn2 n2 A VSS VSS nmos1v w=0.24u l=0.1u
mn3 n2 B VSS VSS nmos1v w=0.24u l=0.1u
mn4 n2 CI COb VSS nmos1v w=0.24u l=0.1u
mn5 n4 A VSS VSS nmos1v w=0.24u l=0.1u
mn6 n4 B VSS VSS nmos1v w=0.24u l=0.1u
mn7 n4 CI VSS VSS nmos1v w=0.24u l=0.1u
mn8 n4 COb Sb VSS nmos1v w=0.24u l=0.1u
mn9 n6 A VSS VSS nmos1v w=0.24u l=0.1u
mp0 n1 A VDD VDD pmos1v w=0.36u l=0.1u
mp1 n1 B COb VDD pmos1v w=0.36u l=0.1u
mp10 n8 B n9 VDD pmos1v w=0.36u l=0.1u
mp11 n9 CI Sb VDD pmos1v w=0.36u l=0.1u
mp12 CO COb VDD VDD pmos1v w=0.36u l=0.1u
mp13 S Sb VDD VDD pmos1v w=0.36u l=0.1u
mp2 n3 A VDD VDD pmos1v w=0.36u l=0.1u
mp3 n3 B VDD VDD pmos1v w=0.36u l=0.1u
mp4 n3 CI COb VDD pmos1v w=0.36u l=0.1u
mp5 n5 A VDD VDD pmos1v w=0.36u l=0.1u
mp6 n5 B VDD VDD pmos1v w=0.36u l=0.1u
mp7 n5 CI VDD VDD pmos1v w=0.36u l=0.1u
mp8 n5 COb Sb VDD pmos1v w=0.36u l=0.1u
mp9 n8 A VDD VDD pmos1v w=0.36u l=0.1u
.ends ADDFXL

* Spice subcircuit definition for ADDHX1




.subckt ADDHX1 CO S / A B VDD VSS
mn0 n0 A VSS VSS nmos1v w=0.24u l=0.1u
mn1 n1 B VSS VSS nmos1v w=0.24u l=0.1u
mn2 n2 n0 VSS VSS nmos1v w=0.24u l=0.1u
mn3 n2 B Sb VSS nmos1v w=0.24u l=0.1u
mn4 n0 n1 Sb VSS nmos1v w=0.24u l=0.1u
mn5 S Sb VSS VSS nmos1v w=0.43u l=0.1u
mn6 n4 A VSS VSS nmos1v w=0.24u l=0.1u
mn7 n4 B COb VSS nmos1v w=0.24u l=0.1u
mn8 CO COb VSS VSS nmos1v w=0.43u l=0.1u
mp0 n0 A VDD VDD pmos1v w=0.36u l=0.1u
mp1 n1 B VDD VDD pmos1v w=0.36u l=0.1u
mp2 n3 n0 VDD VDD pmos1v w=0.36u l=0.1u
mp3 n3 n1 Sb VDD pmos1v w=0.36u l=0.1u
mp4 n0 B Sb VDD pmos1v w=0.36u l=0.1u
mp5 S Sb VDD VDD pmos1v w=0.65u l=0.1u
mp6 COb A VDD VDD pmos1v w=0.36u l=0.1u
mp7 COb B VDD VDD pmos1v w=0.36u l=0.1u
mp8 CO COb VDD VDD pmos1v w=0.65u l=0.1u
.ends ADDHX1

* Spice subcircuit definition for ADDHX2




.subckt ADDHX2 CO S / A B VDD VSS
mn0 n0 A VSS VSS nmos1v w=0.24u l=0.1u
mn1 n1 B VSS VSS nmos1v w=0.24u l=0.1u
mn2 n2 n0 VSS VSS nmos1v w=0.24u l=0.1u
mn3 n2 B Sb VSS nmos1v w=0.24u l=0.1u
mn4 n0 n1 Sb VSS nmos1v w=0.24u l=0.1u
mn5 S Sb VSS VSS nmos1v w=0.86u l=0.1u
mn6 n4 A VSS VSS nmos1v w=0.24u l=0.1u
mn7 n4 B COb VSS nmos1v w=0.24u l=0.1u
mn8 CO COb VSS VSS nmos1v w=0.86u l=0.1u
mp0 n0 A VDD VDD pmos1v w=0.36u l=0.1u
mp1 n1 B VDD VDD pmos1v w=0.36u l=0.1u
mp2 n3 n0 VDD VDD pmos1v w=0.36u l=0.1u
mp3 n3 n1 Sb VDD pmos1v w=0.36u l=0.1u
mp4 n0 B Sb VDD pmos1v w=0.36u l=0.1u
mp5 S Sb VDD VDD pmos1v w=1.3u l=0.1u
mp6 COb A VDD VDD pmos1v w=0.36u l=0.1u
mp7 COb B VDD VDD pmos1v w=0.36u l=0.1u
mp8 CO COb VDD VDD pmos1v w=1.3u l=0.1u
.ends ADDHX2

* Spice subcircuit definition for ADDHX4




.subckt ADDHX4 CO S / A B VDD VSS
mn0 n0 A VSS VSS nmos1v w=0.24u l=0.1u
mn1 n1 B VSS VSS nmos1v w=0.24u l=0.1u
mn2 n2 n0 VSS VSS nmos1v w=0.43u l=0.1u
mn3 n2 B Sb VSS nmos1v w=0.43u l=0.1u
mn4 n0 n1 Sb VSS nmos1v w=0.43u l=0.1u
mn5 S Sb VSS VSS nmos1v w=1.72u l=0.1u
mn6 n4 A VSS VSS nmos1v w=0.43u l=0.1u
mn7 n4 B COb VSS nmos1v w=0.43u l=0.1u
mn8 CO COb VSS VSS nmos1v w=1.72u l=0.1u
mp0 n0 A VDD VDD pmos1v w=0.36u l=0.1u
mp1 n1 B VDD VDD pmos1v w=0.36u l=0.1u
mp2 n3 n0 VDD VDD pmos1v w=0.65u l=0.1u
mp3 n3 n1 Sb VDD pmos1v w=0.65u l=0.1u
mp4 n0 B Sb VDD pmos1v w=0.65u l=0.1u
mp5 S Sb VDD VDD pmos1v w=2.6u l=0.1u
mp6 COb A VDD VDD pmos1v w=0.65u l=0.1u
mp7 COb B VDD VDD pmos1v w=0.65u l=0.1u
mp8 CO COb VDD VDD pmos1v w=2.6u l=0.1u
.ends ADDHX4

* Spice subcircuit definition for ADDHXL




.subckt ADDHXL CO S / A B VDD VSS
mn0 n0 A VSS VSS nmos1v w=0.24u l=0.1u
mn1 n1 B VSS VSS nmos1v w=0.24u l=0.1u
mn2 n2 n0 VSS VSS nmos1v w=0.24u l=0.1u
mn3 n2 B Sb VSS nmos1v w=0.24u l=0.1u
mn4 n0 n1 Sb VSS nmos1v w=0.24u l=0.1u
mn5 S Sb VSS VSS nmos1v w=0.24u l=0.1u
mn6 n4 A VSS VSS nmos1v w=0.24u l=0.1u
mn7 n4 B COb VSS nmos1v w=0.24u l=0.1u
mn8 CO COb VSS VSS nmos1v w=0.24u l=0.1u
mp0 n0 A VDD VDD pmos1v w=0.36u l=0.1u
mp1 n1 B VDD VDD pmos1v w=0.36u l=0.1u
mp2 n3 n0 VDD VDD pmos1v w=0.36u l=0.1u
mp3 n3 n1 Sb VDD pmos1v w=0.36u l=0.1u
mp4 n0 B Sb VDD pmos1v w=0.36u l=0.1u
mp5 S Sb VDD VDD pmos1v w=0.36u l=0.1u
mp6 COb A VDD VDD pmos1v w=0.36u l=0.1u
mp7 COb B VDD VDD pmos1v w=0.36u l=0.1u
mp8 CO COb VDD VDD pmos1v w=0.36u l=0.1u
.ends ADDHXL

* Spice subcircuit definition for AND2X1




.subckt AND2X1 Y / A B VDD VSS
mn0 n1 A VSS VSS nmos1v w=0.24u l=0.1u
mn1 n1 B n0 VSS nmos1v w=0.24u l=0.1u
mn2 Y n0 VSS VSS nmos1v w=0.43u l=0.1u
mp0 n0 A VDD VDD pmos1v w=0.36u l=0.1u
mp1 n0 B VDD VDD pmos1v w=0.36u l=0.1u
mp2 Y n0 VDD VDD pmos1v w=0.65u l=0.1u
.ends AND2X1

* Spice subcircuit definition for AND2X2




.subckt AND2X2 Y / A B VDD VSS
mn0 n1 A VSS VSS nmos1v w=0.24u l=0.1u
mn1 n1 B n0 VSS nmos1v w=0.24u l=0.1u
mn2 Y n0 VSS VSS nmos1v w=0.86u l=0.1u
mp0 n0 A VDD VDD pmos1v w=0.36u l=0.1u
mp1 n0 B VDD VDD pmos1v w=0.36u l=0.1u
mp2 Y n0 VDD VDD pmos1v w=1.3u l=0.1u
.ends AND2X2

* Spice subcircuit definition for AND2X4




.subckt AND2X4 Y / A B VDD VSS
mn0 n1 A VSS VSS nmos1v w=0.43u l=0.1u
mn1 n1 B n0 VSS nmos1v w=0.43u l=0.1u
mn2 Y n0 VSS VSS nmos1v w=1.72u l=0.1u
mp0 n0 A VDD VDD pmos1v w=0.65u l=0.1u
mp1 n0 B VDD VDD pmos1v w=0.65u l=0.1u
mp2 Y n0 VDD VDD pmos1v w=2.6u l=0.1u
.ends AND2X4

* Spice subcircuit definition for AND2X6




.subckt AND2X6 Y / A B VDD VSS
mn0 n1 A VSS VSS nmos1v w=0.86u l=0.1u
mn1 n1 B n0 VSS nmos1v w=0.86u l=0.1u
mn2 Y n0 VSS VSS nmos1v w=2.58u l=0.1u
mp0 n0 A VDD VDD pmos1v w=1.3u l=0.1u
mp1 n0 B VDD VDD pmos1v w=1.3u l=0.1u
mp2 Y n0 VDD VDD pmos1v w=3.9u l=0.1u
.ends AND2X6

* Spice subcircuit definition for AND2X8




.subckt AND2X8 Y / A B VDD VSS
mn0 n1 A VSS VSS nmos1v w=0.86u l=0.1u
mn1 n1 B n0 VSS nmos1v w=0.86u l=0.1u
mn2 Y n0 VSS VSS nmos1v w=3.44u l=0.1u
mp0 n0 A VDD VDD pmos1v w=1.3u l=0.1u
mp1 n0 B VDD VDD pmos1v w=1.3u l=0.1u
mp2 Y n0 VDD VDD pmos1v w=5.2u l=0.1u
.ends AND2X8

* Spice subcircuit definition for AND2XL




.subckt AND2XL Y / A B VDD VSS
mn0 n1 A VSS VSS nmos1v w=0.24u l=0.1u
mn1 n1 B n0 VSS nmos1v w=0.24u l=0.1u
mn2 Y n0 VSS VSS nmos1v w=0.24u l=0.1u
mp0 n0 A VDD VDD pmos1v w=0.36u l=0.1u
mp1 n0 B VDD VDD pmos1v w=0.36u l=0.1u
mp2 Y n0 VDD VDD pmos1v w=0.36u l=0.1u
.ends AND2XL

* Spice subcircuit definition for AND3X1




.subckt AND3X1 Y / A B C VDD VSS
mn0 n1 A VSS VSS nmos1v w=0.24u l=0.1u
mn1 n1 B n2 VSS nmos1v w=0.24u l=0.1u
mn2 n2 C n0 VSS nmos1v w=0.24u l=0.1u
mn3 Y n0 VSS VSS nmos1v w=0.43u l=0.1u
mp0 n0 A VDD VDD pmos1v w=0.36u l=0.1u
mp1 n0 B VDD VDD pmos1v w=0.36u l=0.1u
mp2 n0 C VDD VDD pmos1v w=0.36u l=0.1u
mp3 Y n0 VDD VDD pmos1v w=0.65u l=0.1u
.ends AND3X1

* Spice subcircuit definition for AND3X2




.subckt AND3X2 Y / A B C VDD VSS
mn0 n1 A VSS VSS nmos1v w=0.24u l=0.1u
mn1 n1 B n2 VSS nmos1v w=0.24u l=0.1u
mn2 n2 C n0 VSS nmos1v w=0.24u l=0.1u
mn3 Y n0 VSS VSS nmos1v w=0.86u l=0.1u
mp0 n0 A VDD VDD pmos1v w=0.36u l=0.1u
mp1 n0 B VDD VDD pmos1v w=0.36u l=0.1u
mp2 n0 C VDD VDD pmos1v w=0.36u l=0.1u
mp3 Y n0 VDD VDD pmos1v w=1.3u l=0.1u
.ends AND3X2

* Spice subcircuit definition for AND3X4




.subckt AND3X4 Y / A B C VDD VSS
mn0 n1 A VSS VSS nmos1v w=0.43u l=0.1u
mn1 n1 B n2 VSS nmos1v w=0.43u l=0.1u
mn2 n2 C n0 VSS nmos1v w=0.43u l=0.1u
mn3 Y n0 VSS VSS nmos1v w=1.72u l=0.1u
mp0 n0 A VDD VDD pmos1v w=0.65u l=0.1u
mp1 n0 B VDD VDD pmos1v w=0.65u l=0.1u
mp2 n0 C VDD VDD pmos1v w=0.65u l=0.1u
mp3 Y n0 VDD VDD pmos1v w=2.6u l=0.1u
.ends AND3X4

* Spice subcircuit definition for AND3X6




.subckt AND3X6 Y / A B C VDD VSS
mn0 n1 A VSS VSS nmos1v w=0.86u l=0.1u
mn1 n1 B n2 VSS nmos1v w=0.86u l=0.1u
mn2 n2 C n0 VSS nmos1v w=0.86u l=0.1u
mn3 Y n0 VSS VSS nmos1v w=2.58u l=0.1u
mp0 n0 A VDD VDD pmos1v w=1.3u l=0.1u
mp1 n0 B VDD VDD pmos1v w=1.3u l=0.1u
mp2 n0 C VDD VDD pmos1v w=1.3u l=0.1u
mp3 Y n0 VDD VDD pmos1v w=3.9u l=0.1u
.ends AND3X6

* Spice subcircuit definition for AND3X8




.subckt AND3X8 Y / A B C VDD VSS
mn0 n1 A VSS VSS nmos1v w=0.86u l=0.1u
mn1 n1 B n2 VSS nmos1v w=0.86u l=0.1u
mn2 n2 C n0 VSS nmos1v w=0.86u l=0.1u
mn3 Y n0 VSS VSS nmos1v w=3.44u l=0.1u
mp0 n0 A VDD VDD pmos1v w=1.3u l=0.1u
mp1 n0 B VDD VDD pmos1v w=1.3u l=0.1u
mp2 n0 C VDD VDD pmos1v w=1.3u l=0.1u
mp3 Y n0 VDD VDD pmos1v w=5.2u l=0.1u
.ends AND3X8

* Spice subcircuit definition for AND3XL




.subckt AND3XL Y / A B C VDD VSS
mn0 n1 A VSS VSS nmos1v w=0.24u l=0.1u
mn1 n1 B n2 VSS nmos1v w=0.24u l=0.1u
mn2 n2 C n0 VSS nmos1v w=0.24u l=0.1u
mn3 Y n0 VSS VSS nmos1v w=0.24u l=0.1u
mp0 n0 A VDD VDD pmos1v w=0.36u l=0.1u
mp1 n0 B VDD VDD pmos1v w=0.36u l=0.1u
mp2 n0 C VDD VDD pmos1v w=0.36u l=0.1u
mp3 Y n0 VDD VDD pmos1v w=0.36u l=0.1u
.ends AND3XL

* Spice subcircuit definition for AND4X1




.subckt AND4X1 Y / A B C D VDD VSS
mn0 n1 A VSS VSS nmos1v w=0.24u l=0.1u
mn1 n1 B n2 VSS nmos1v w=0.24u l=0.1u
mn2 n2 C n3 VSS nmos1v w=0.24u l=0.1u
mn3 n3 D n0 VSS nmos1v w=0.24u l=0.1u
mn4 Y n0 VSS VSS nmos1v w=0.43u l=0.1u
mp0 n0 A VDD VDD pmos1v w=0.36u l=0.1u
mp1 n0 B VDD VDD pmos1v w=0.36u l=0.1u
mp2 n0 C VDD VDD pmos1v w=0.36u l=0.1u
mp3 n0 D VDD VDD pmos1v w=0.36u l=0.1u
mp4 Y n0 VDD VDD pmos1v w=0.65u l=0.1u
.ends AND4X1

* Spice subcircuit definition for AND4X2




.subckt AND4X2 Y / A B C D VDD VSS
mn0 n1 A VSS VSS nmos1v w=0.24u l=0.1u
mn1 n1 B n2 VSS nmos1v w=0.24u l=0.1u
mn2 n2 C n3 VSS nmos1v w=0.24u l=0.1u
mn3 n3 D n0 VSS nmos1v w=0.24u l=0.1u
mn4 Y n0 VSS VSS nmos1v w=0.86u l=0.1u
mp0 n0 A VDD VDD pmos1v w=0.36u l=0.1u
mp1 n0 B VDD VDD pmos1v w=0.36u l=0.1u
mp2 n0 C VDD VDD pmos1v w=0.36u l=0.1u
mp3 n0 D VDD VDD pmos1v w=0.36u l=0.1u
mp4 Y n0 VDD VDD pmos1v w=1.3u l=0.1u
.ends AND4X2

* Spice subcircuit definition for AND4X4




.subckt AND4X4 Y / A B C D VDD VSS
mn0 n1 A VSS VSS nmos1v w=0.43u l=0.1u
mn1 n1 B n2 VSS nmos1v w=0.43u l=0.1u
mn2 n2 C n3 VSS nmos1v w=0.43u l=0.1u
mn3 n3 D n0 VSS nmos1v w=0.43u l=0.1u
mn4 Y n0 VSS VSS nmos1v w=1.72u l=0.1u
mp0 n0 A VDD VDD pmos1v w=0.65u l=0.1u
mp1 n0 B VDD VDD pmos1v w=0.65u l=0.1u
mp2 n0 C VDD VDD pmos1v w=0.65u l=0.1u
mp3 n0 D VDD VDD pmos1v w=0.65u l=0.1u
mp4 Y n0 VDD VDD pmos1v w=2.6u l=0.1u
.ends AND4X4

* Spice subcircuit definition for AND4X6




.subckt AND4X6 Y / A B C D VDD VSS
mn0 n1 A VSS VSS nmos1v w=0.86u l=0.1u
mn1 n1 B n2 VSS nmos1v w=0.86u l=0.1u
mn2 n2 C n3 VSS nmos1v w=0.86u l=0.1u
mn3 n3 D n0 VSS nmos1v w=0.86u l=0.1u
mn4 Y n0 VSS VSS nmos1v w=2.58u l=0.1u
mp0 n0 A VDD VDD pmos1v w=1.3u l=0.1u
mp1 n0 B VDD VDD pmos1v w=1.3u l=0.1u
mp2 n0 C VDD VDD pmos1v w=1.3u l=0.1u
mp3 n0 D VDD VDD pmos1v w=1.3u l=0.1u
mp4 Y n0 VDD VDD pmos1v w=3.9u l=0.1u
.ends AND4X6

* Spice subcircuit definition for AND4X8




.subckt AND4X8 Y / A B C D VDD VSS
mn0 n1 A VSS VSS nmos1v w=0.86u l=0.1u
mn1 n1 B n2 VSS nmos1v w=0.86u l=0.1u
mn2 n2 C n3 VSS nmos1v w=0.86u l=0.1u
mn3 n3 D n0 VSS nmos1v w=0.86u l=0.1u
mn4 Y n0 VSS VSS nmos1v w=3.44u l=0.1u
mp0 n0 A VDD VDD pmos1v w=1.3u l=0.1u
mp1 n0 B VDD VDD pmos1v w=1.3u l=0.1u
mp2 n0 C VDD VDD pmos1v w=1.3u l=0.1u
mp3 n0 D VDD VDD pmos1v w=1.3u l=0.1u
mp4 Y n0 VDD VDD pmos1v w=5.2u l=0.1u
.ends AND4X8

* Spice subcircuit definition for AND4XL




.subckt AND4XL Y / A B C D VDD VSS
mn0 n1 A VSS VSS nmos1v w=0.24u l=0.1u
mn1 n1 B n2 VSS nmos1v w=0.24u l=0.1u
mn2 n2 C n3 VSS nmos1v w=0.24u l=0.1u
mn3 n3 D n0 VSS nmos1v w=0.24u l=0.1u
mn4 Y n0 VSS VSS nmos1v w=0.24u l=0.1u
mp0 n0 A VDD VDD pmos1v w=0.36u l=0.1u
mp1 n0 B VDD VDD pmos1v w=0.36u l=0.1u
mp2 n0 C VDD VDD pmos1v w=0.36u l=0.1u
mp3 n0 D VDD VDD pmos1v w=0.36u l=0.1u
mp4 Y n0 VDD VDD pmos1v w=0.36u l=0.1u
.ends AND4XL

* Spice subcircuit definition for AO21X1




.subckt AO21X1 Y / A0 A1 B0 VDD VSS
mn0 n1 A0 VSS VSS nmos1v w=0.24u l=0.1u
mn1 n1 A1 n0 VSS nmos1v w=0.24u l=0.1u
mn2 n0 B0 VSS VSS nmos1v w=0.24u l=0.1u
mn3 Y n0 VSS VSS nmos1v w=0.43u l=0.1u
mp0 n2 A0 VDD VDD pmos1v w=0.36u l=0.1u
mp1 n2 A1 VDD VDD pmos1v w=0.36u l=0.1u
mp2 n2 B0 n0 VDD pmos1v w=0.36u l=0.1u
mp3 Y n0 VDD VDD pmos1v w=0.65u l=0.1u
.ends AO21X1

* Spice subcircuit definition for AO21X2




.subckt AO21X2 Y / A0 A1 B0 VDD VSS
mn0 n1 A0 VSS VSS nmos1v w=0.24u l=0.1u
mn1 n1 A1 n0 VSS nmos1v w=0.24u l=0.1u
mn2 n0 B0 VSS VSS nmos1v w=0.24u l=0.1u
mn3 Y n0 VSS VSS nmos1v w=0.86u l=0.1u
mp0 n2 A0 VDD VDD pmos1v w=0.36u l=0.1u
mp1 n2 A1 VDD VDD pmos1v w=0.36u l=0.1u
mp2 n2 B0 n0 VDD pmos1v w=0.36u l=0.1u
mp3 Y n0 VDD VDD pmos1v w=1.3u l=0.1u
.ends AO21X2

* Spice subcircuit definition for AO21X4




.subckt AO21X4 Y / A0 A1 B0 VDD VSS
mn0 n1 A0 VSS VSS nmos1v w=0.43u l=0.1u
mn1 n1 A1 n0 VSS nmos1v w=0.43u l=0.1u
mn2 n0 B0 VSS VSS nmos1v w=0.43u l=0.1u
mn3 Y n0 VSS VSS nmos1v w=1.72u l=0.1u
mp0 n2 A0 VDD VDD pmos1v w=0.65u l=0.1u
mp1 n2 A1 VDD VDD pmos1v w=0.65u l=0.1u
mp2 n2 B0 n0 VDD pmos1v w=0.65u l=0.1u
mp3 Y n0 VDD VDD pmos1v w=2.6u l=0.1u
.ends AO21X4

* Spice subcircuit definition for AO21XL




.subckt AO21XL Y / A0 A1 B0 VDD VSS
mn0 n1 A0 VSS VSS nmos1v w=0.24u l=0.1u
mn1 n1 A1 n0 VSS nmos1v w=0.24u l=0.1u
mn2 n0 B0 VSS VSS nmos1v w=0.24u l=0.1u
mn3 Y n0 VSS VSS nmos1v w=0.24u l=0.1u
mp0 n2 A0 VDD VDD pmos1v w=0.36u l=0.1u
mp1 n2 A1 VDD VDD pmos1v w=0.36u l=0.1u
mp2 n2 B0 n0 VDD pmos1v w=0.36u l=0.1u
mp3 Y n0 VDD VDD pmos1v w=0.36u l=0.1u
.ends AO21XL

* Spice subcircuit definition for AO22X1




.subckt AO22X1 Y / A0 A1 B0 B1 VDD VSS
mn0 n1 A0 VSS VSS nmos1v w=0.24u l=0.1u
mn1 n1 A1 n0 VSS nmos1v w=0.24u l=0.1u
mn2 n2 B0 VSS VSS nmos1v w=0.24u l=0.1u
mn3 n2 B1 n0 VSS nmos1v w=0.24u l=0.1u
mn4 Y n0 VSS VSS nmos1v w=0.43u l=0.1u
mp0 n3 A0 VDD VDD pmos1v w=0.36u l=0.1u
mp1 n3 A1 VDD VDD pmos1v w=0.36u l=0.1u
mp2 n3 B0 n0 VDD pmos1v w=0.36u l=0.1u
mp3 n3 B1 n0 VDD pmos1v w=0.36u l=0.1u
mp4 Y n0 VDD VDD pmos1v w=0.65u l=0.1u
.ends AO22X1

* Spice subcircuit definition for AO22X2




.subckt AO22X2 Y / A0 A1 B0 B1 VDD VSS
mn0 n1 A0 VSS VSS nmos1v w=0.24u l=0.1u
mn1 n1 A1 n0 VSS nmos1v w=0.24u l=0.1u
mn2 n2 B0 VSS VSS nmos1v w=0.24u l=0.1u
mn3 n2 B1 n0 VSS nmos1v w=0.24u l=0.1u
mn4 Y n0 VSS VSS nmos1v w=0.86u l=0.1u
mp0 n3 A0 VDD VDD pmos1v w=0.36u l=0.1u
mp1 n3 A1 VDD VDD pmos1v w=0.36u l=0.1u
mp2 n3 B0 n0 VDD pmos1v w=0.36u l=0.1u
mp3 n3 B1 n0 VDD pmos1v w=0.36u l=0.1u
mp4 Y n0 VDD VDD pmos1v w=1.3u l=0.1u
.ends AO22X2

* Spice subcircuit definition for AO22X4




.subckt AO22X4 Y / A0 A1 B0 B1 VDD VSS
mn0 n1 A0 VSS VSS nmos1v w=0.43u l=0.1u
mn1 n1 A1 n0 VSS nmos1v w=0.43u l=0.1u
mn2 n2 B0 VSS VSS nmos1v w=0.43u l=0.1u
mn3 n2 B1 n0 VSS nmos1v w=0.43u l=0.1u
mn4 Y n0 VSS VSS nmos1v w=1.72u l=0.1u
mp0 n3 A0 VDD VDD pmos1v w=0.65u l=0.1u
mp1 n3 A1 VDD VDD pmos1v w=0.65u l=0.1u
mp2 n3 B0 n0 VDD pmos1v w=0.65u l=0.1u
mp3 n3 B1 n0 VDD pmos1v w=0.65u l=0.1u
mp4 Y n0 VDD VDD pmos1v w=2.6u l=0.1u
.ends AO22X4

* Spice subcircuit definition for AO22XL




.subckt AO22XL Y / A0 A1 B0 B1 VDD VSS
mn0 n1 A0 VSS VSS nmos1v w=0.24u l=0.1u
mn1 n1 A1 n0 VSS nmos1v w=0.24u l=0.1u
mn2 n2 B0 VSS VSS nmos1v w=0.24u l=0.1u
mn3 n2 B1 n0 VSS nmos1v w=0.24u l=0.1u
mn4 Y n0 VSS VSS nmos1v w=0.24u l=0.1u
mp0 n3 A0 VDD VDD pmos1v w=0.36u l=0.1u
mp1 n3 A1 VDD VDD pmos1v w=0.36u l=0.1u
mp2 n3 B0 n0 VDD pmos1v w=0.36u l=0.1u
mp3 n3 B1 n0 VDD pmos1v w=0.36u l=0.1u
mp4 Y n0 VDD VDD pmos1v w=0.36u l=0.1u
.ends AO22XL

* Spice subcircuit definition for AOI211X1




.subckt AOI211X1 Y / A0 A1 B0 C0 VDD VSS
mn0 n0 A0 VSS VSS nmos1v w=0.43u l=0.1u
mn1 n0 A1 Y VSS nmos1v w=0.43u l=0.1u
mn2 Y B0 VSS VSS nmos1v w=0.43u l=0.1u
mn3 Y C0 VSS VSS nmos1v w=0.43u l=0.1u
mp0 n1 A0 VDD VDD pmos1v w=0.65u l=0.1u
mp1 n1 A1 VDD VDD pmos1v w=0.65u l=0.1u
mp2 n1 B0 n2 VDD pmos1v w=0.65u l=0.1u
mp3 n2 C0 Y VDD pmos1v w=0.65u l=0.1u
.ends AOI211X1

* Spice subcircuit definition for AOI211X2




.subckt AOI211X2 Y / A0 A1 B0 C0 VDD VSS
mn0 n0 A0 VSS VSS nmos1v w=0.86u l=0.1u
mn1 n0 A1 Y VSS nmos1v w=0.86u l=0.1u
mn2 Y B0 VSS VSS nmos1v w=0.86u l=0.1u
mn3 Y C0 VSS VSS nmos1v w=0.86u l=0.1u
mp0 n1 A0 VDD VDD pmos1v w=1.3u l=0.1u
mp1 n1 A1 VDD VDD pmos1v w=1.3u l=0.1u
mp2 n1 B0 n2 VDD pmos1v w=1.3u l=0.1u
mp3 n2 C0 Y VDD pmos1v w=1.3u l=0.1u
.ends AOI211X2

* Spice subcircuit definition for AOI211X4




.subckt AOI211X4 Y / A0 A1 B0 C0 VDD VSS
mn0 n0 A0 VSS VSS nmos1v w=1.72u l=0.1u
mn1 n0 A1 Y VSS nmos1v w=1.72u l=0.1u
mn2 Y B0 VSS VSS nmos1v w=1.72u l=0.1u
mn3 Y C0 VSS VSS nmos1v w=1.72u l=0.1u
mp0 n1 A0 VDD VDD pmos1v w=2.6u l=0.1u
mp1 n1 A1 VDD VDD pmos1v w=2.6u l=0.1u
mp2 n1 B0 n2 VDD pmos1v w=2.6u l=0.1u
mp3 n2 C0 Y VDD pmos1v w=2.6u l=0.1u
.ends AOI211X4

* Spice subcircuit definition for AOI211XL




.subckt AOI211XL Y / A0 A1 B0 C0 VDD VSS
mn0 n0 A0 VSS VSS nmos1v w=0.24u l=0.1u
mn1 n0 A1 Y VSS nmos1v w=0.24u l=0.1u
mn2 Y B0 VSS VSS nmos1v w=0.24u l=0.1u
mn3 Y C0 VSS VSS nmos1v w=0.24u l=0.1u
mp0 n1 A0 VDD VDD pmos1v w=0.36u l=0.1u
mp1 n1 A1 VDD VDD pmos1v w=0.36u l=0.1u
mp2 n1 B0 n2 VDD pmos1v w=0.36u l=0.1u
mp3 n2 C0 Y VDD pmos1v w=0.36u l=0.1u
.ends AOI211XL

* Spice subcircuit definition for AOI21X1




.subckt AOI21X1 Y / A0 A1 B0 VDD VSS
mn0 n0 A0 VSS VSS nmos1v w=0.43u l=0.1u
mn1 n0 A1 Y VSS nmos1v w=0.43u l=0.1u
mn2 Y B0 VSS VSS nmos1v w=0.43u l=0.1u
mp0 n1 A0 VDD VDD pmos1v w=0.65u l=0.1u
mp1 n1 A1 VDD VDD pmos1v w=0.65u l=0.1u
mp2 n1 B0 Y VDD pmos1v w=0.65u l=0.1u
.ends AOI21X1

* Spice subcircuit definition for AOI21X2




.subckt AOI21X2 Y / A0 A1 B0 VDD VSS
mn0 n0 A0 VSS VSS nmos1v w=0.86u l=0.1u
mn1 n0 A1 Y VSS nmos1v w=0.86u l=0.1u
mn2 Y B0 VSS VSS nmos1v w=0.86u l=0.1u
mp0 n1 A0 VDD VDD pmos1v w=1.3u l=0.1u
mp1 n1 A1 VDD VDD pmos1v w=1.3u l=0.1u
mp2 n1 B0 Y VDD pmos1v w=1.3u l=0.1u
.ends AOI21X2

* Spice subcircuit definition for AOI21X4




.subckt AOI21X4 Y / A0 A1 B0 VDD VSS
mn0 n0 A0 VSS VSS nmos1v w=1.72u l=0.1u
mn1 n0 A1 Y VSS nmos1v w=1.72u l=0.1u
mn2 Y B0 VSS VSS nmos1v w=1.72u l=0.1u
mp0 n1 A0 VDD VDD pmos1v w=2.6u l=0.1u
mp1 n1 A1 VDD VDD pmos1v w=2.6u l=0.1u
mp2 n1 B0 Y VDD pmos1v w=2.6u l=0.1u
.ends AOI21X4

* Spice subcircuit definition for AOI21XL




.subckt AOI21XL Y / A0 A1 B0 VDD VSS
mn0 n0 A0 VSS VSS nmos1v w=0.24u l=0.1u
mn1 n0 A1 Y VSS nmos1v w=0.24u l=0.1u
mn2 Y B0 VSS VSS nmos1v w=0.24u l=0.1u
mp0 n1 A0 VDD VDD pmos1v w=0.36u l=0.1u
mp1 n1 A1 VDD VDD pmos1v w=0.36u l=0.1u
mp2 n1 B0 Y VDD pmos1v w=0.36u l=0.1u
.ends AOI21XL

* Spice subcircuit definition for AOI221X1




.subckt AOI221X1 Y / A0 A1 B0 B1 C0 VDD VSS
mn0 n0 A0 VSS VSS nmos1v w=0.43u l=0.1u
mn1 n0 A1 Y VSS nmos1v w=0.43u l=0.1u
mn2 n1 B0 VSS VSS nmos1v w=0.43u l=0.1u
mn3 n1 B1 Y VSS nmos1v w=0.43u l=0.1u
mn4 Y C0 VSS VSS nmos1v w=0.43u l=0.1u
mp0 n2 A0 VDD VDD pmos1v w=0.65u l=0.1u
mp1 n2 A1 VDD VDD pmos1v w=0.65u l=0.1u
mp2 n2 B0 n3 VDD pmos1v w=0.65u l=0.1u
mp3 n2 B1 n3 VDD pmos1v w=0.65u l=0.1u
mp4 n3 C0 Y VDD pmos1v w=0.65u l=0.1u
.ends AOI221X1

* Spice subcircuit definition for AOI221X2




.subckt AOI221X2 Y / A0 A1 B0 B1 C0 VDD VSS
mn0 n0 A0 VSS VSS nmos1v w=0.86u l=0.1u
mn1 n0 A1 Y VSS nmos1v w=0.86u l=0.1u
mn2 n1 B0 VSS VSS nmos1v w=0.86u l=0.1u
mn3 n1 B1 Y VSS nmos1v w=0.86u l=0.1u
mn4 Y C0 VSS VSS nmos1v w=0.86u l=0.1u
mp0 n2 A0 VDD VDD pmos1v w=1.3u l=0.1u
mp1 n2 A1 VDD VDD pmos1v w=1.3u l=0.1u
mp2 n2 B0 n3 VDD pmos1v w=1.3u l=0.1u
mp3 n2 B1 n3 VDD pmos1v w=1.3u l=0.1u
mp4 n3 C0 Y VDD pmos1v w=1.3u l=0.1u
.ends AOI221X2

* Spice subcircuit definition for AOI221X4




.subckt AOI221X4 Y / A0 A1 B0 B1 C0 VDD VSS
mn0 n0 A0 VSS VSS nmos1v w=1.72u l=0.1u
mn1 n0 A1 Y VSS nmos1v w=1.72u l=0.1u
mn2 n1 B0 VSS VSS nmos1v w=1.72u l=0.1u
mn3 n1 B1 Y VSS nmos1v w=1.72u l=0.1u
mn4 Y C0 VSS VSS nmos1v w=1.72u l=0.1u
mp0 n2 A0 VDD VDD pmos1v w=2.6u l=0.1u
mp1 n2 A1 VDD VDD pmos1v w=2.6u l=0.1u
mp2 n2 B0 n3 VDD pmos1v w=2.6u l=0.1u
mp3 n2 B1 n3 VDD pmos1v w=2.6u l=0.1u
mp4 n3 C0 Y VDD pmos1v w=2.6u l=0.1u
.ends AOI221X4

* Spice subcircuit definition for AOI221XL




.subckt AOI221XL Y / A0 A1 B0 B1 C0 VDD VSS
mn0 n0 A0 VSS VSS nmos1v w=0.24u l=0.1u
mn1 n0 A1 Y VSS nmos1v w=0.24u l=0.1u
mn2 n1 B0 VSS VSS nmos1v w=0.24u l=0.1u
mn3 n1 B1 Y VSS nmos1v w=0.24u l=0.1u
mn4 Y C0 VSS VSS nmos1v w=0.24u l=0.1u
mp0 n2 A0 VDD VDD pmos1v w=0.36u l=0.1u
mp1 n2 A1 VDD VDD pmos1v w=0.36u l=0.1u
mp2 n2 B0 n3 VDD pmos1v w=0.36u l=0.1u
mp3 n2 B1 n3 VDD pmos1v w=0.36u l=0.1u
mp4 n3 C0 Y VDD pmos1v w=0.36u l=0.1u
.ends AOI221XL

* Spice subcircuit definition for AOI222X1




.subckt AOI222X1 Y / A0 A1 B0 B1 C0 C1 VDD VSS
mn0 n0 A0 VSS VSS nmos1v w=0.43u l=0.1u
mn1 n0 A1 Y VSS nmos1v w=0.43u l=0.1u
mn2 n1 B0 VSS VSS nmos1v w=0.43u l=0.1u
mn3 n1 B1 Y VSS nmos1v w=0.43u l=0.1u
mn4 n2 C0 VSS VSS nmos1v w=0.43u l=0.1u
mn5 n2 C1 Y VSS nmos1v w=0.43u l=0.1u
mp0 n3 A0 VDD VDD pmos1v w=0.65u l=0.1u
mp1 n3 A1 VDD VDD pmos1v w=0.65u l=0.1u
mp2 n3 B0 n4 VDD pmos1v w=0.65u l=0.1u
mp3 n3 B1 n4 VDD pmos1v w=0.65u l=0.1u
mp4 n4 C0 Y VDD pmos1v w=0.65u l=0.1u
mp5 n4 C1 Y VDD pmos1v w=0.65u l=0.1u
.ends AOI222X1

* Spice subcircuit definition for AOI222X2




.subckt AOI222X2 Y / A0 A1 B0 B1 C0 C1 VDD VSS
mn0 n0 A0 VSS VSS nmos1v w=0.86u l=0.1u
mn1 n0 A1 Y VSS nmos1v w=0.86u l=0.1u
mn2 n1 B0 VSS VSS nmos1v w=0.86u l=0.1u
mn3 n1 B1 Y VSS nmos1v w=0.86u l=0.1u
mn4 n2 C0 VSS VSS nmos1v w=0.86u l=0.1u
mn5 n2 C1 Y VSS nmos1v w=0.86u l=0.1u
mp0 n3 A0 VDD VDD pmos1v w=1.3u l=0.1u
mp1 n3 A1 VDD VDD pmos1v w=1.3u l=0.1u
mp2 n3 B0 n4 VDD pmos1v w=1.3u l=0.1u
mp3 n3 B1 n4 VDD pmos1v w=1.3u l=0.1u