simulator lang=spectre
save I0.NM0:oppoint
